$ -------------------------------------------------------------------- $
$ WAVEWATCH III Ascii Boundary input processing                        $
$--------------------------------------------------------------------- $
$ Boundary option: READ or WRITE
$
  WRITE 
$
$ Interpolation method: 1: nearest
$                       2: linear interpolation
  2 
$
$ Verbose mode [0-1]
$
  1
$
$ List of spectra files. These ASCII files use the WAVEWATCH III
$ format as described in the ww3_outp.inp file. The files are 
$ defined relative to the directory in which the program is run.
$
$ Examples of such files can be found at (for example): 
$   ftp://polar.ncep.noaa.gov/pub/waves/develop/glw.latest_run/
$                                              (the *.spec.gz files)
$   http://tinyurl.com/iowagaftp/HINDCAST/GLOBAL/2009_ECMWF/SPEC
$
$ If data is used other than from previous WAVEWATCH III runs, then
$ this data will need to be converted to the WAVEWATCH III format.
$
$ In the case of NetCDF files see ww3_bounc.inp  
$
$ ----------
$gfswave.HWRF*-#.spec 
$a 50-86
$c 50-177
$e 50-146
$l 50-98
$p 50-169
$s 50-150
$w 50-123
$    =======    LIST OF BOUNDARY POINTS FOR ******* ===========
$#incomingspectra here#
gfswave.HWRFe-50.spec
gfswave.HWRFe-51.spec
gfswave.HWRFe-52.spec
gfswave.HWRFe-53.spec
gfswave.HWRFe-54.spec
gfswave.HWRFe-55.spec
gfswave.HWRFe-56.spec
gfswave.HWRFe-57.spec
gfswave.HWRFe-58.spec
gfswave.HWRFe-59.spec
gfswave.HWRFe-60.spec
gfswave.HWRFe-61.spec
gfswave.HWRFe-62.spec
gfswave.HWRFe-63.spec
gfswave.HWRFe-64.spec
gfswave.HWRFe-65.spec
gfswave.HWRFe-66.spec
gfswave.HWRFe-67.spec
gfswave.HWRFe-68.spec
gfswave.HWRFe-69.spec
gfswave.HWRFe-70.spec
gfswave.HWRFe-71.spec
gfswave.HWRFe-72.spec
gfswave.HWRFe-73.spec
gfswave.HWRFe-74.spec
gfswave.HWRFe-75.spec
gfswave.HWRFe-76.spec
gfswave.HWRFe-77.spec
gfswave.HWRFe-78.spec
gfswave.HWRFe-79.spec
gfswave.HWRFe-80.spec
gfswave.HWRFe-81.spec
gfswave.HWRFe-82.spec
gfswave.HWRFe-83.spec
gfswave.HWRFe-84.spec
gfswave.HWRFe-85.spec
gfswave.HWRFe-86.spec
gfswave.HWRFe-87.spec
gfswave.HWRFe-88.spec
gfswave.HWRFe-89.spec
gfswave.HWRFe-90.spec
gfswave.HWRFe-91.spec
gfswave.HWRFe-92.spec
gfswave.HWRFe-93.spec
gfswave.HWRFe-94.spec
gfswave.HWRFe-95.spec
gfswave.HWRFe-96.spec
gfswave.HWRFe-97.spec
gfswave.HWRFe-98.spec
gfswave.HWRFe-99.spec
gfswave.HWRFe-100.spec
gfswave.HWRFe-101.spec
gfswave.HWRFe-102.spec
gfswave.HWRFe-103.spec
gfswave.HWRFe-104.spec
gfswave.HWRFe-105.spec
gfswave.HWRFe-106.spec
gfswave.HWRFe-107.spec
gfswave.HWRFe-108.spec
gfswave.HWRFe-109.spec
gfswave.HWRFe-110.spec
gfswave.HWRFe-111.spec
gfswave.HWRFe-112.spec
gfswave.HWRFe-113.spec
gfswave.HWRFe-114.spec
gfswave.HWRFe-115.spec
gfswave.HWRFe-116.spec
gfswave.HWRFe-117.spec
gfswave.HWRFe-118.spec
gfswave.HWRFe-119.spec
gfswave.HWRFe-120.spec
gfswave.HWRFe-121.spec
gfswave.HWRFe-122.spec
gfswave.HWRFe-123.spec
gfswave.HWRFe-124.spec
gfswave.HWRFe-125.spec
gfswave.HWRFe-126.spec
gfswave.HWRFe-127.spec
gfswave.HWRFe-128.spec
gfswave.HWRFe-129.spec
gfswave.HWRFe-130.spec
gfswave.HWRFe-131.spec
gfswave.HWRFe-132.spec
gfswave.HWRFe-133.spec
gfswave.HWRFe-134.spec
gfswave.HWRFe-135.spec
gfswave.HWRFe-136.spec
gfswave.HWRFe-137.spec
gfswave.HWRFe-138.spec
gfswave.HWRFe-139.spec
gfswave.HWRFe-140.spec
gfswave.HWRFe-141.spec
gfswave.HWRFe-142.spec
gfswave.HWRFe-143.spec
gfswave.HWRFe-144.spec
gfswave.HWRFe-145.spec
gfswave.HWRFe-146.spec
gfswave.HWRFe-147.spec
gfswave.HWRFe-148.spec
gfswave.HWRFe-149.spec
gfswave.HWRFe-150.spec
gfswave.HWRFe-151.spec
gfswave.HWRFe-152.spec
gfswave.HWRFe-153.spec
gfswave.HWRFe-154.spec
gfswave.HWRFe-155.spec
gfswave.HWRFe-156.spec
gfswave.HWRFe-157.spec
gfswave.HWRFe-158.spec
gfswave.HWRFe-159.spec
gfswave.HWRFe-160.spec
gfswave.HWRFe-161.spec
gfswave.HWRFe-162.spec
gfswave.HWRFe-163.spec
gfswave.HWRFe-164.spec
gfswave.HWRFe-165.spec
gfswave.HWRFe-166.spec
gfswave.HWRFe-167.spec
gfswave.HWRFe-168.spec
gfswave.HWRFe-169.spec
gfswave.HWRFe-170.spec
gfswave.HWRFe-171.spec
gfswave.HWRFe-172.spec
gfswave.HWRFe-173.spec
gfswave.HWRFe-174.spec
gfswave.HWRFe-175.spec
gfswave.HWRFe-176.spec
gfswave.HWRFe-177.spec
gfswave.HWRFe-178.spec
gfswave.HWRFe-179.spec
gfswave.HWRFe-180.spec
gfswave.HWRFe-181.spec
gfswave.HWRFe-182.spec
gfswave.HWRFe-183.spec
gfswave.HWRFe-184.spec
gfswave.HWRFe-185.spec
gfswave.HWRFe-186.spec
gfswave.HWRFe-187.spec
gfswave.HWRFe-188.spec
gfswave.HWRFe-189.spec
gfswave.HWRFe-190.spec
gfswave.HWRFe-191.spec
gfswave.HWRFe-192.spec
gfswave.HWRFe-193.spec
gfswave.HWRFe-194.spec
gfswave.HWRFe-195.spec
gfswave.HWRFe-196.spec
gfswave.HWRFe-197.spec
gfswave.HWRFe-198.spec
gfswave.HWRFe-199.spec
gfswave.HWRFe-200.spec
gfswave.HWRFe-201.spec
gfswave.HWRFe-202.spec
gfswave.HWRFe-203.spec
gfswave.HWRFe-204.spec
gfswave.HWRFe-205.spec
gfswave.HWRFe-206.spec
gfswave.HWRFe-207.spec
gfswave.HWRFe-208.spec
gfswave.HWRFe-209.spec
gfswave.HWRFe-210.spec
gfswave.HWRFe-211.spec
gfswave.HWRFe-212.spec
gfswave.HWRFe-213.spec
gfswave.HWRFe-214.spec
gfswave.HWRFe-215.spec
gfswave.HWRFe-216.spec
gfswave.HWRFe-217.spec
gfswave.HWRFe-218.spec
gfswave.HWRFe-219.spec
gfswave.HWRFe-220.spec
gfswave.HWRFe-221.spec
gfswave.HWRFe-222.spec
gfswave.HWRFe-223.spec
gfswave.HWRFe-224.spec
gfswave.HWRFe-225.spec
gfswave.HWRFe-226.spec
gfswave.HWRFe-227.spec
gfswave.HWRFe-228.spec
gfswave.HWRFe-229.spec
gfswave.HWRFe-230.spec
gfswave.HWRFe-231.spec
gfswave.HWRFe-232.spec
gfswave.HWRFe-233.spec
gfswave.HWRFe-234.spec
gfswave.HWRFe-235.spec
gfswave.HWRFe-236.spec
gfswave.HWRFe-237.spec
gfswave.HWRFe-238.spec
gfswave.HWRFe-239.spec
gfswave.HWRFe-240.spec
gfswave.HWRFe-241.spec
gfswave.HWRFe-242.spec
gfswave.HWRFe-243.spec
gfswave.HWRFe-244.spec
gfswave.HWRFe-245.spec
gfswave.HWRFe-246.spec
gfswave.HWRFe-247.spec
gfswave.HWRFe-248.spec
gfswave.HWRFe-249.spec
gfswave.HWRFe-250.spec
gfswave.HWRFe-251.spec
gfswave.HWRFe-252.spec
gfswave.HWRFe-253.spec
gfswave.HWRFe-254.spec
gfswave.HWRFe-255.spec
gfswave.HWRFe-256.spec
gfswave.HWRFe-257.spec
gfswave.HWRFe-258.spec
gfswave.HWRFe-259.spec
gfswave.HWRFe-260.spec
gfswave.HWRFe-261.spec
gfswave.HWRFe-262.spec
gfswave.HWRFe-263.spec
gfswave.HWRFe-264.spec
gfswave.HWRFe-265.spec
gfswave.HWRFe-266.spec
gfswave.HWRFe-267.spec
gfswave.HWRFe-268.spec
gfswave.HWRFe-269.spec
gfswave.HWRFe-270.spec
gfswave.HWRFe-271.spec
gfswave.HWRFe-272.spec
gfswave.HWRFe-273.spec
gfswave.HWRFe-274.spec
gfswave.HWRFe-275.spec
gfswave.HWRFe-276.spec
gfswave.HWRFe-277.spec
gfswave.HWRFe-278.spec
gfswave.HWRFe-279.spec
gfswave.HWRFe-280.spec
gfswave.HWRFe-281.spec
gfswave.HWRFe-282.spec
gfswave.HWRFe-283.spec
gfswave.HWRFe-284.spec
gfswave.HWRFe-285.spec
gfswave.HWRFe-286.spec
gfswave.HWRFe-287.spec
gfswave.HWRFe-288.spec
gfswave.HWRFe-289.spec
gfswave.HWRFe-290.spec
gfswave.HWRFe-291.spec
gfswave.HWRFe-292.spec
gfswave.HWRFe-293.spec
gfswave.HWRFe-294.spec
gfswave.HWRFe-295.spec
gfswave.HWRFe-296.spec
gfswave.HWRFe-297.spec
gfswave.HWRFe-298.spec
gfswave.HWRFe-299.spec
gfswave.HWRFe-300.spec
gfswave.HWRFe-301.spec
gfswave.HWRFe-302.spec
gfswave.HWRFe-303.spec
gfswave.HWRFe-304.spec
gfswave.HWRFe-305.spec
gfswave.HWRFe-306.spec
gfswave.HWRFe-307.spec
gfswave.HWRFe-308.spec
gfswave.HWRFe-309.spec
gfswave.HWRFe-310.spec
gfswave.HWRFe-311.spec
gfswave.HWRFe-312.spec
gfswave.HWRFe-313.spec
gfswave.HWRFe-314.spec
gfswave.HWRFe-315.spec
gfswave.HWRFe-316.spec
gfswave.HWRFe-317.spec
gfswave.HWRFe-318.spec
gfswave.HWRFe-319.spec
gfswave.HWRFe-320.spec
gfswave.HWRFe-321.spec
gfswave.HWRFe-322.spec
gfswave.HWRFe-323.spec
gfswave.HWRFe-324.spec
gfswave.HWRFe-325.spec
gfswave.HWRFe-326.spec
gfswave.HWRFe-327.spec
gfswave.HWRFe-328.spec
gfswave.HWRFe-329.spec
gfswave.HWRFe-330.spec
gfswave.HWRFe-331.spec
gfswave.HWRFe-332.spec
gfswave.HWRFe-333.spec
gfswave.HWRFe-334.spec
gfswave.HWRFe-335.spec
gfswave.HWRFe-336.spec
gfswave.HWRFe-337.spec
gfswave.HWRFe-338.spec
gfswave.HWRFe-339.spec
gfswave.HWRFe-340.spec
gfswave.HWRFe-341.spec
gfswave.HWRFe-342.spec
gfswave.HWRFe-343.spec
gfswave.HWRFe-344.spec
gfswave.HWRFe-345.spec
gfswave.HWRFe-346.spec
gfswave.HWRFe-347.spec
gfswave.HWRFe-348.spec
gfswave.HWRFe-349.spec
gfswave.HWRFe-350.spec
gfswave.HWRFe-351.spec
gfswave.HWRFe-352.spec
gfswave.HWRFe-353.spec
gfswave.HWRFe-354.spec
gfswave.HWRFe-355.spec
gfswave.HWRFe-356.spec
gfswave.HWRFe-357.spec
gfswave.HWRFe-358.spec
gfswave.HWRFe-359.spec
gfswave.HWRFe-360.spec
gfswave.HWRFe-361.spec
gfswave.HWRFe-362.spec
gfswave.HWRFe-363.spec
gfswave.HWRFe-364.spec
gfswave.HWRFe-365.spec
gfswave.HWRFe-366.spec
gfswave.HWRFe-367.spec
gfswave.HWRFe-368.spec
gfswave.HWRFe-369.spec
gfswave.HWRFe-370.spec
gfswave.HWRFe-371.spec
gfswave.HWRFe-372.spec
gfswave.HWRFe-373.spec
gfswave.HWRFe-374.spec
gfswave.HWRFe-375.spec
gfswave.HWRFe-376.spec
gfswave.HWRFe-377.spec
gfswave.HWRFe-378.spec
gfswave.HWRFe-379.spec
gfswave.HWRFe-380.spec
gfswave.HWRFe-381.spec
gfswave.HWRFe-382.spec
gfswave.HWRFe-383.spec
gfswave.HWRFe-384.spec
gfswave.HWRFe-385.spec
gfswave.HWRFe-386.spec
gfswave.HWRFe-387.spec
gfswave.HWRFe-388.spec
gfswave.HWRFe-389.spec
gfswave.HWRFe-390.spec
gfswave.HWRFe-391.spec
gfswave.HWRFe-392.spec
gfswave.HWRFe-393.spec
gfswave.HWRFe-394.spec
gfswave.HWRFe-395.spec
gfswave.HWRFe-396.spec
gfswave.HWRFe-397.spec
gfswave.HWRFe-398.spec
gfswave.HWRFe-399.spec
gfswave.HWRFe-400.spec
gfswave.HWRFe-401.spec
gfswave.HWRFe-402.spec
gfswave.HWRFe-403.spec
gfswave.HWRFe-404.spec
gfswave.HWRFe-405.spec
gfswave.HWRFe-406.spec
gfswave.HWRFe-407.spec
gfswave.HWRFe-408.spec
gfswave.HWRFe-409.spec
gfswave.HWRFe-410.spec
gfswave.HWRFe-411.spec
gfswave.HWRFe-412.spec
gfswave.HWRFe-413.spec
gfswave.HWRFe-414.spec
gfswave.HWRFe-415.spec
gfswave.HWRFe-416.spec
gfswave.HWRFe-417.spec
gfswave.HWRFe-418.spec
gfswave.HWRFe-419.spec
gfswave.HWRFe-420.spec
gfswave.HWRFe-421.spec
gfswave.HWRFe-422.spec
gfswave.HWRFe-423.spec
gfswave.HWRFe-424.spec
gfswave.HWRFe-425.spec
gfswave.HWRFe-426.spec
gfswave.HWRFe-427.spec
gfswave.HWRFe-428.spec
gfswave.HWRFe-429.spec
gfswave.HWRFe-430.spec
gfswave.HWRFe-431.spec
gfswave.HWRFe-432.spec
gfswave.HWRFe-433.spec
gfswave.HWRFe-434.spec
$
$
'STOPSTRING'
$ 
$ -------------------------------------------------------------------- $
$ End of input file                                                    $
$ -------------------------------------------------------------------- $
