$ WAVEWATCH III Point output post-processing
$ ------------------------------------------
<u:PNT_BEG>  <i:PNT_DT>  999
$
<u:PNT_NUM>
 -1
$
  4
  4 1 <u:RUN_BEG> 'UTC' 
$
$ End of input file
