$ WAVEWATCH III Point output post-processing
$ ------------------------------------------
<u:PNT_BEG>  <i:PNT_DT>  999
$
 -1
$
  0
$
$ End of input file
